Version 4
SHEET 1 880 680
WIRE 176 -352 176 -384
WIRE 352 -352 176 -352
WIRE 176 -320 176 -352
WIRE 176 -320 48 -320
WIRE 176 -304 176 -320
WIRE 176 -192 176 -224
WIRE 176 -192 48 -192
WIRE -432 -160 -528 -160
WIRE 176 -128 176 -192
WIRE -528 -96 -528 -160
WIRE 768 -64 768 -160
WIRE -528 64 -528 -16
WIRE 176 80 176 32
WIRE 224 80 176 80
WIRE 352 80 352 -352
WIRE 352 80 288 80
WIRE 768 96 768 16
WIRE 176 128 176 80
WIRE -80 208 -160 208
WIRE -32 208 -80 208
WIRE 128 208 48 208
WIRE -80 240 -80 208
WIRE 176 272 176 224
FLAG 768 96 0
FLAG 176 272 0
FLAG 176 -464 V_SUPPLY
FLAG 768 -160 V_SUPPLY
FLAG -80 320 0
FLAG -160 208 PWM_IN
FLAG 48 -320 R_SENSE_H
FLAG 48 -192 R_SENSE_L
FLAG -528 64 0
FLAG -432 -160 PWM_IN
SYMBOL nmos 128 128 R0
SYMATTR InstName M1
SYMATTR Value IPP052NE7N3
SYMBOL res 160 -64 R0
SYMATTR InstName R1
SYMATTR Value 2.5
SYMBOL ind 160 -144 R0
SYMATTR InstName L1
SYMATTR Value 34m
SYMBOL schottky 224 96 R270
WINDOW 0 32 32 VTop 2
WINDOW 3 0 32 VBottom 2
SYMATTR InstName D1
SYMATTR Value MBR735
SYMATTR Description Diode
SYMATTR Type diode
SYMBOL voltage 768 -80 R0
WINDOW 123 0 0 Left 0
WINDOW 39 0 0 Left 0
SYMATTR InstName V1
SYMATTR Value 12
SYMBOL ind 160 -480 R0
SYMATTR InstName L2
SYMATTR Value 1n
SYMBOL res 64 192 R90
WINDOW 0 0 56 VBottom 2
WINDOW 3 32 56 VTop 2
SYMATTR InstName R2
SYMATTR Value 63
SYMBOL res -64 336 R180
WINDOW 0 36 76 Left 2
WINDOW 3 36 40 Left 2
SYMATTR InstName R3
SYMATTR Value 10K
SYMBOL voltage -528 -112 R0
WINDOW 123 0 0 Left 0
WINDOW 39 0 0 Left 0
SYMATTR InstName V2
SYMATTR Value PULSE(0 5 0 0 0 0.00005 0.0001 1000)
SYMBOL res 160 -320 R0
SYMATTR InstName R4
SYMATTR Value 0.007
TEXT 240 -416 Left 2 ;Line Inductance
TEXT -8 -96 Left 2 ;Electromagnet
TEXT -480 -56 Left 2 ;10Khz PWM
TEXT -562 344 Left 2 !.tran 0.2
