Version 4
SHEET 1 1096 680
WIRE 288 16 288 -160
WIRE 576 112 448 112
WIRE 736 112 656 112
WIRE -400 176 -528 176
WIRE -400 208 -400 176
WIRE -208 208 -400 208
WIRE 128 208 -208 208
WIRE 736 208 736 112
WIRE 880 208 736 208
WIRE 128 272 16 272
WIRE -528 288 -528 256
WIRE -384 288 -528 288
WIRE -528 320 -528 288
WIRE -528 432 -528 384
WIRE 288 448 288 336
WIRE 928 448 928 224
FLAG 288 448 0
FLAG -256 -240 0
FLAG 288 -160 5V_SUPPLY
FLAG -384 288 RC_OSC
FLAG 16 272 RC_OSC
FLAG 736 288 0
FLAG 928 448 0
FLAG -528 432 0
FLAG -208 272 0
SYMBOL PowerProducts\\LT1242 288 176 R0
SYMATTR InstName U1
SYMBOL nmos 880 128 R0
SYMATTR InstName M1
SYMATTR Value IPP052NE7N3
SYMBOL voltage -256 -416 R0
SYMATTR InstName V1
SYMBOL res -544 160 R0
SYMATTR InstName R1
SYMATTR Value 12k
SYMBOL cap -544 320 R0
SYMATTR InstName C1
SYMATTR Value 220µ
SYMBOL res 672 96 R90
WINDOW 0 0 56 VBottom 2
WINDOW 3 32 56 VTop 2
SYMATTR InstName R2
SYMATTR Value 12
SYMBOL res 720 192 R0
SYMATTR InstName R3
SYMATTR Value 10k
SYMBOL cap -224 208 R0
SYMATTR InstName C2
SYMATTR Value 0.1µ
