Version 4
SHEET 1 1096 680
SYMBOL PowerProducts\\LT1242 288 176 R0
SYMATTR InstName U1
SYMBOL nmos 880 128 R0
SYMATTR InstName M1
SYMATTR Value IPP052NE7N3
