Version 4
SHEET 1 2264 680
WIRE 1616 -448 1616 -480
WIRE 1792 -448 1616 -448
WIRE 1616 -416 1616 -448
WIRE 1616 -416 1488 -416
WIRE 1616 -400 1616 -416
WIRE 1616 -288 1616 -320
WIRE 1616 -288 1488 -288
WIRE -512 -256 -512 -320
WIRE -352 -256 -352 -320
WIRE -192 -256 -192 -320
WIRE 1616 -224 1616 -288
WIRE -512 -96 -512 -176
WIRE -352 -96 -352 -176
WIRE -192 -96 -192 -176
WIRE 1616 -16 1616 -64
WIRE 1616 -16 1120 -16
WIRE 1664 -16 1616 -16
WIRE 1792 -16 1792 -448
WIRE 1792 -16 1728 -16
WIRE 288 16 288 -160
WIRE 1616 32 1616 -16
WIRE 128 80 16 80
WIRE 576 112 448 112
WIRE 1360 112 1280 112
WIRE 1408 112 1360 112
WIRE 1568 112 1488 112
WIRE 1840 128 1616 128
WIRE 1360 144 1360 112
WIRE -400 176 -528 176
WIRE -400 208 -400 176
WIRE -208 208 -400 208
WIRE 128 208 -208 208
WIRE 576 240 448 240
WIRE 1616 256 1616 208
WIRE 128 272 16 272
WIRE -528 288 -528 256
WIRE -384 288 -528 288
WIRE -528 320 -528 288
WIRE -528 432 -528 384
WIRE 288 448 288 336
FLAG 288 448 0
FLAG -512 -96 0
FLAG 288 -160 V_SUPPLY
FLAG -384 288 RC_OSC
FLAG 16 272 RC_OSC
FLAG -528 432 0
FLAG -208 272 0
FLAG 1616 -560 V_SUPPLY
FLAG 1360 224 0
FLAG 1280 112 PWM_IN
FLAG 1488 -416 R_SENSE_H
FLAG 1488 -288 R_SENSE_L
FLAG 576 112 PWM_IN
FLAG -512 -320 V_SUPPLY
FLAG -352 -96 0
FLAG -192 -96 0
FLAG 16 80 FB_INPUT
FLAG 16 144 COMP_INPUT
FLAG 576 240 I_SENSE
FLAG 1616 256 0
FLAG 1840 128 I_SENSE
FLAG 1120 -16 FB_INPUT
SYMBOL PowerProducts\\LT1242 288 176 R0
SYMATTR InstName U1
SYMBOL voltage -512 -272 R0
WINDOW 123 0 0 Left 0
WINDOW 39 0 0 Left 0
SYMATTR InstName V1
SYMATTR Value 15
SYMBOL res -544 160 R0
SYMATTR InstName R1
SYMATTR Value 12k
SYMBOL cap -544 320 R0
SYMATTR InstName C1
SYMATTR Value 220µ
SYMBOL cap -224 208 R0
SYMATTR InstName C2
SYMATTR Value 0.1µ
SYMBOL nmos 1568 32 R0
SYMATTR InstName M2
SYMATTR Value IPP052NE7N3
SYMBOL res 1600 -160 R0
SYMATTR InstName R4
SYMATTR Value 2.5
SYMBOL ind 1600 -240 R0
SYMATTR InstName L1
SYMATTR Value 34m
SYMBOL schottky 1664 0 R270
WINDOW 0 32 32 VTop 2
WINDOW 3 0 32 VBottom 2
SYMATTR InstName D1
SYMATTR Value MBR735
SYMATTR Description Diode
SYMATTR Type diode
SYMBOL ind 1600 -576 R0
SYMATTR InstName L2
SYMATTR Value 1n
SYMBOL res 1504 96 R90
WINDOW 0 0 56 VBottom 2
WINDOW 3 32 56 VTop 2
SYMATTR InstName R5
SYMATTR Value 63
SYMBOL res 1376 240 R180
WINDOW 0 36 76 Left 2
WINDOW 3 36 40 Left 2
SYMATTR InstName R6
SYMATTR Value 10K
SYMBOL res 1600 -416 R0
SYMATTR InstName R7
SYMATTR Value 0.007
SYMBOL voltage -352 -272 R0
WINDOW 123 0 0 Left 0
WINDOW 39 0 0 Left 0
SYMATTR InstName V3
SYMATTR Value 3
SYMBOL voltage -192 -272 R0
WINDOW 123 0 0 Left 0
WINDOW 39 0 0 Left 0
SYMATTR InstName V4
SYMATTR Value 1
SYMBOL res 1600 112 R0
SYMATTR InstName R2
SYMATTR Value 4
TEXT 1680 -512 Left 2 ;Line Inductance
TEXT 1432 -192 Left 2 ;Electromagnet
TEXT -548 472 Left 2 !.tran 1
